L6/1726540/Cargas.dss
! ==========================================================
! CARGAS — mes 01
! BT: UCBT_tab agregada por transformador (kW = ENE/730 h)
! MT: UCMT_tab individual no PAC do consumidor
! fator de escala aplicado: 1
! 0 cargas de MT descartadas por PAC ausente da rede.
! ==========================================================
New Load.BT_325172235_325837422_1 Bus1=node_408201525.1.4 Phases=1 Model=8 zipv=(0.5,0,0.5,1,0,0,0) kv=0.1200 pf=0.92 kW=0.379452 Daily=RES1_25
New Load.BT_325172235_325837422_2 Bus1=node_408201525.2.4 Phases=1 Model=8 zipv=(0.5,0,0.5,1,0,0,0) kv=0.1200 pf=0.92 kW=0.379452 Daily=RES1_25
New Load.BT_325399365_325774807_1 Bus1=node_407563321.1.4 Phases=1 Model=8 zipv=(0.5,0,0.5,1,0,0,0) kv=0.1270 pf=0.92 kW=7.550228 Daily=RES1_25
New Load.BT_325399365_325774807_2 Bus1=node_407563321.2.4 Phases=1 Model=8 zipv=(0.5,0,0.5,1,0,0,0) kv=0.1270 pf=0.92 kW=7.550228 Daily=RES1_25
New Load.BT_325399365_325774807_3 Bus1=node_407563321.3.4 Phases=1 Model=8 zipv=(0.5,0,0.5,1,0,0,0) kv=0.1270 pf=0.92 kW=7.550228 Daily=RES1_25
New Load.BT_325049842_325859226_1 Bus1=node_407563852.1.4 Phases=1 Model=8 zipv=(0.5,0,0.5,1,0,0,0) kv=0.1200 pf=0.92 kW=0.158219 Daily=RES1_25
New Load.BT_325049842_325859226_2 Bus1=node_407563852.2.4 Phases=1 Model=8 zipv=(0.5,0,0.5,1,0,0,0) kv=0.1200 pf=0.92 kW=0.158219 Daily=RES1_25
New Load.BT_325048170_325776049_1 Bus1=node_407562106.1.4 Phases=1 Model=8 zipv=(0.5,0,0.5,1,0,0,0) kv=0.1270 pf=0.92 kW=3.204110 Daily=RES1_25
New Load.BT_325048170_325776049_2 Bus1=node_407562106.2.4 Phases=1 Model=8 zipv=(0.5,0,0.5,1,0,0,0) kv=0.1270 pf=0.92 kW=3.204110 Daily=RES1_25
New Load.BT_325048170_325776049_3 Bus1=node_407562106.3.4 Phases=1 Model=8 zipv=(0.5,0,0.5,1,0,0,0) kv=0.1270 pf=0.92 kW=3.204110 Daily=RES1_25
New Load.BT_325172384_325403299_1 Bus1=node_407563747.1.4 Phases=1 Model=8 zipv=(0.5,0,0.5,1,0,0,0) kv=0.1270 pf=0.92 kW=2.094521 Daily=RES1_25
New Load.BT_325172384_325403299_2 Bus1=node_407563747.2.4 Phases=1 Model=8 zipv=(0.5,0,0.5,1,0,0,0) kv=0.1270 pf=0.92 kW=2.094521 Daily=RES1_25
New Load.BT_325172384_325403299_3 Bus1=node_407563747.3.4 Phases=1 Model=8 zipv=(0.5,0,0.5,1,0,0,0) kv=0.1270 pf=0.92 kW=2.094521 Daily=RES1_25
New Load.BT_324763161_325813997_1 Bus1=node_412469800.1.4 Phases=1 Model=8 zipv=(0.5,0,0.5,1,0,0,0) kv=0.1270 pf=0.92 kW=2.557534 Daily=RES1_25
New Load.BT_324763161_325813997_2 Bus1=node_412469800.2.4 Phases=1 Model=8 zipv=(0.5,0,0.5,1,0,0,0) kv=0.1270 pf=0.92 kW=2.557534 Daily=RES1_25
New Load.BT_324763161_325813997_3 Bus1=node_412469800.3.4 Phases=1 Model=8 zipv=(0.5,0,0.5,1,0,0,0) kv=0.1270 pf=0.92 kW=2.557534 Daily=RES1_25
New Load.BT_325172890_325815636_1 Bus1=node_2633265479.1.4 Phases=1 Model=8 zipv=(0.5,0,0.5,1,0,0,0) kv=0.1200 pf=0.92 kW=0.558904 Daily=RES1_25
New Load.BT_325172890_325815636_2 Bus1=node_2633265479.2.4 Phases=1 Model=8 zipv=(0.5,0,0.5,1,0,0,0) kv=0.1200 pf=0.92 kW=0.558904 Daily=RES1_25
New Load.BT_324922798_325743346_1 Bus1=node_407612880.1.4 Phases=1 Model=8 zipv=(0.5,0,0.5,1,0,0,0) kv=0.1270 pf=0.92 kW=4.099087 Daily=RES1_25
New Load.BT_324922798_325743346_2 Bus1=node_407612880.2.4 Phases=1 Model=8 zipv=(0.5,0,0.5,1,0,0,0) kv=0.1270 pf=0.92 kW=4.099087 Daily=RES1_25
New Load.BT_324922798_325743346_3 Bus1=node_407612880.3.4 Phases=1 Model=8 zipv=(0.5,0,0.5,1,0,0,0) kv=0.1270 pf=0.92 kW=4.099087 Daily=RES1_25
New Load.BT_325173651_325814000_1 Bus1=node_412470529.1.4 Phases=1 Model=8 zipv=(0.5,0,0.5,1,0,0,0) kv=0.1270 pf=0.92 kW=7.037900 Daily=RES1_25
New Load.BT_325173651_325814000_2 Bus1=node_412470529.2.4 Phases=1 Model=8 zipv=(0.5,0,0.5,1,0,0,0) kv=0.1270 pf=0.92 kW=7.037900 Daily=RES1_25
New Load.BT_325173651_325814000_3 Bus1=node_412470529.3.4 Phases=1 Model=8 zipv=(0.5,0,0.5,1,0,0,0) kv=0.1270 pf=0.92 kW=7.037900 Daily=RES1_25
New Load.BT_1152531101_1152531100_1 Bus1=node_1388945858.1.4 Phases=1 Model=8 zipv=(0.5,0,0.5,1,0,0,0) kv=0.1200 pf=0.92 kW=0.006164 Daily=RES1_25
New Load.BT_1152531101_1152531100_2 Bus1=node_1388945858.2.4 Phases=1 Model=8 zipv=(0.5,0,0.5,1,0,0,0) kv=0.1200 pf=0.92 kW=0.006164 Daily=RES1_25
New Load.BT_324762614_325840866_1 Bus1=node_412470787.1.4 Phases=1 Model=8 zipv=(0.5,0,0.5,1,0,0,0) kv=0.1200 pf=0.92 kW=1.417808 Daily=RES1_25
New Load.BT_324762614_325840866_2 Bus1=node_412470787.2.4 Phases=1 Model=8 zipv=(0.5,0,0.5,1,0,0,0) kv=0.1200 pf=0.92 kW=1.417808 Daily=RES1_25
New Load.BT_325173823_325859193_1 Bus1=node_412470562.1.4 Phases=1 Model=8 zipv=(0.5,0,0.5,1,0,0,0) kv=0.1270 pf=0.92 kW=3.557534 Daily=RES1_25
New Load.BT_325173823_325859193_2 Bus1=node_412470562.2.4 Phases=1 Model=8 zipv=(0.5,0,0.5,1,0,0,0) kv=0.1270 pf=0.92 kW=3.557534 Daily=RES1_25
New Load.BT_325173823_325859193_3 Bus1=node_412470562.3.4 Phases=1 Model=8 zipv=(0.5,0,0.5,1,0,0,0) kv=0.1270 pf=0.92 kW=3.557534 Daily=RES1_25
New Load.BT_650747192_650747191_1 Bus1=node_919195278.1.4 Phases=1 Model=8 zipv=(0.5,0,0.5,1,0,0,0) kv=0.1200 pf=0.92 kW=0.252055 Daily=RES1_25
New Load.BT_650747192_650747191_2 Bus1=node_919195278.2.4 Phases=1 Model=8 zipv=(0.5,0,0.5,1,0,0,0) kv=0.1200 pf=0.92 kW=0.252055 Daily=RES1_25
New Load.BT_324763067_325743804_1 Bus1=node_412469893.1.4 Phases=1 Model=8 zipv=(0.5,0,0.5,1,0,0,0) kv=0.1270 pf=0.92 kW=3.785845 Daily=RES1_25
New Load.BT_324763067_325743804_2 Bus1=node_412469893.2.4 Phases=1 Model=8 zipv=(0.5,0,0.5,1,0,0,0) kv=0.1270 pf=0.92 kW=3.785845 Daily=RES1_25
New Load.BT_324763067_325743804_3 Bus1=node_412469893.3.4 Phases=1 Model=8 zipv=(0.5,0,0.5,1,0,0,0) kv=0.1270 pf=0.92 kW=3.785845 Daily=RES1_25
New Load.BT_325400270_325813960_1 Bus1=node_407562115.1.4 Phases=1 Model=8 zipv=(0.5,0,0.5,1,0,0,0) kv=0.1270 pf=0.92 kW=7.888584 Daily=RES1_25
New Load.BT_325400270_325813960_2 Bus1=node_407562115.2.4 Phases=1 Model=8 zipv=(0.5,0,0.5,1,0,0,0) kv=0.1270 pf=0.92 kW=7.888584 Daily=RES1_25
New Load.BT_325400270_325813960_3 Bus1=node_407562115.3.4 Phases=1 Model=8 zipv=(0.5,0,0.5,1,0,0,0) kv=0.1270 pf=0.92 kW=7.888584 Daily=RES1_25
New Load.BT_324925330_325841069_1 Bus1=node_407563153.1.4 Phases=1 Model=8 zipv=(0.5,0,0.5,1,0,0,0) kv=0.1270 pf=0.92 kW=9.430137 Daily=RES1_25
New Load.BT_324925330_325841069_2 Bus1=node_407563153.2.4 Phases=1 Model=8 zipv=(0.5,0,0.5,1,0,0,0) kv=0.1270 pf=0.92 kW=9.430137 Daily=RES1_25
New Load.BT_324925330_325841069_3 Bus1=node_407563153.3.4 Phases=1 Model=8 zipv=(0.5,0,0.5,1,0,0,0) kv=0.1270 pf=0.92 kW=9.430137 Daily=RES1_25
New Load.BT_325174556_325813922_1 Bus1=node_407563591.1.4 Phases=1 Model=8 zipv=(0.5,0,0.5,1,0,0,0) kv=0.1270 pf=0.92 kW=8.543379 Daily=RES1_25
New Load.BT_325174556_325813922_2 Bus1=node_407563591.2.4 Phases=1 Model=8 zipv=(0.5,0,0.5,1,0,0,0) kv=0.1270 pf=0.92 kW=8.543379 Daily=RES1_25
New Load.BT_325174556_325813922_3 Bus1=node_407563591.3.4 Phases=1 Model=8 zipv=(0.5,0,0.5,1,0,0,0) kv=0.1270 pf=0.92 kW=8.543379 Daily=RES1_25
New Load.BT_325049613_325839641_1 Bus1=node_407562958.1.4 Phases=1 Model=8 zipv=(0.5,0,0.5,1,0,0,0) kv=0.1270 pf=0.92 kW=5.110046 Daily=RES1_25
New Load.BT_325049613_325839641_2 Bus1=node_407562958.2.4 Phases=1 Model=8 zipv=(0.5,0,0.5,1,0,0,0) kv=0.1270 pf=0.92 kW=5.110046 Daily=RES1_25
New Load.BT_325049613_325839641_3 Bus1=node_407562958.3.4 Phases=1 Model=8 zipv=(0.5,0,0.5,1,0,0,0) kv=0.1270 pf=0.92 kW=5.110046 Daily=RES1_25
New Load.BT_325049976_325774810_1 Bus1=node_407562973.1.4 Phases=1 Model=8 zipv=(0.5,0,0.5,1,0,0,0) kv=0.1270 pf=0.92 kW=4.376256 Daily=RES1_25
New Load.BT_325049976_325774810_2 Bus1=node_407562973.2.4 Phases=1 Model=8 zipv=(0.5,0,0.5,1,0,0,0) kv=0.1270 pf=0.92 kW=4.376256 Daily=RES1_25
New Load.BT_325049976_325774810_3 Bus1=node_407562973.3.4 Phases=1 Model=8 zipv=(0.5,0,0.5,1,0,0,0) kv=0.1270 pf=0.92 kW=4.376256 Daily=RES1_25
New Load.BT_325047279_325774865_1 Bus1=node_407562061.1.4 Phases=1 Model=8 zipv=(0.5,0,0.5,1,0,0,0) kv=0.1270 pf=0.92 kW=5.028311 Daily=RES1_25
New Load.BT_325047279_325774865_2 Bus1=node_407562061.2.4 Phases=1 Model=8 zipv=(0.5,0,0.5,1,0,0,0) kv=0.1270 pf=0.92 kW=5.028311 Daily=RES1_25
New Load.BT_325047279_325774865_3 Bus1=node_407562061.3.4 Phases=1 Model=8 zipv=(0.5,0,0.5,1,0,0,0) kv=0.1270 pf=0.92 kW=5.028311 Daily=RES1_25
New Load.BT_325048755_1564171144_1 Bus1=node_2211465938.1.4 Phases=1 Model=8 zipv=(0.5,0,0.5,1,0,0,0) kv=0.1200 pf=0.92 kW=0.215068 Daily=RES2_1
New Load.BT_325048755_1564171144_2 Bus1=node_2211465938.2.4 Phases=1 Model=8 zipv=(0.5,0,0.5,1,0,0,0) kv=0.1200 pf=0.92 kW=0.215068 Daily=RES2_1
New Load.BT_324760773_1350381414_1 Bus1=node_407563759.1.4 Phases=1 Model=8 zipv=(0.5,0,0.5,1,0,0,0) kv=0.1270 pf=0.92 kW=5.554338 Daily=RES1_25
New Load.BT_324760773_1350381414_2 Bus1=node_407563759.2.4 Phases=1 Model=8 zipv=(0.5,0,0.5,1,0,0,0) kv=0.1270 pf=0.92 kW=5.554338 Daily=RES1_25
New Load.BT_324760773_1350381414_3 Bus1=node_407563759.3.4 Phases=1 Model=8 zipv=(0.5,0,0.5,1,0,0,0) kv=0.1270 pf=0.92 kW=5.554338 Daily=RES1_25
New Load.BT_325172249_325841111_1 Bus1=node_412469629.1.4 Phases=1 Model=8 zipv=(0.5,0,0.5,1,0,0,0) kv=0.1200 pf=0.92 kW=0.192466 Daily=RES1_25
New Load.BT_325172249_325841111_2 Bus1=node_412469629.2.4 Phases=1 Model=8 zipv=(0.5,0,0.5,1,0,0,0) kv=0.1200 pf=0.92 kW=0.192466 Daily=RES1_25
New Load.BT_325400179_325815519_1 Bus1=node_407562268.1.4 Phases=1 Model=8 zipv=(0.5,0,0.5,1,0,0,0) kv=0.1270 pf=0.92 kW=3.944292 Daily=RES1_25
New Load.BT_325400179_325815519_2 Bus1=node_407562268.2.4 Phases=1 Model=8 zipv=(0.5,0,0.5,1,0,0,0) kv=0.1270 pf=0.92 kW=3.944292 Daily=RES1_25
New Load.BT_325400179_325815519_3 Bus1=node_407562268.3.4 Phases=1 Model=8 zipv=(0.5,0,0.5,1,0,0,0) kv=0.1270 pf=0.92 kW=3.944292 Daily=RES1_25
New Load.BT_325173884_325813955_1 Bus1=node_407562073.1.4 Phases=1 Model=8 zipv=(0.5,0,0.5,1,0,0,0) kv=0.1270 pf=0.92 kW=4.620548 Daily=RES1_25
New Load.BT_325173884_325813955_2 Bus1=node_407562073.2.4 Phases=1 Model=8 zipv=(0.5,0,0.5,1,0,0,0) kv=0.1270 pf=0.92 kW=4.620548 Daily=RES1_25
New Load.BT_325173884_325813955_3 Bus1=node_407562073.3.4 Phases=1 Model=8 zipv=(0.5,0,0.5,1,0,0,0) kv=0.1270 pf=0.92 kW=4.620548 Daily=RES1_25
New Load.BT_325050404_325774863_1 Bus1=node_407562031.1.4 Phases=1 Model=8 zipv=(0.5,0,0.5,1,0,0,0) kv=0.1270 pf=0.92 kW=8.721918 Daily=RES1_25
New Load.BT_325050404_325774863_2 Bus1=node_407562031.2.4 Phases=1 Model=8 zipv=(0.5,0,0.5,1,0,0,0) kv=0.1270 pf=0.92 kW=8.721918 Daily=RES1_25
New Load.BT_325050404_325774863_3 Bus1=node_407562031.3.4 Phases=1 Model=8 zipv=(0.5,0,0.5,1,0,0,0) kv=0.1270 pf=0.92 kW=8.721918 Daily=RES1_25
New Load.BT_325399512_325744229_1 Bus1=node_408203154.1.4 Phases=1 Model=8 zipv=(0.5,0,0.5,1,0,0,0) kv=0.1200 pf=0.92 kW=4.504110 Daily=RES1_25
New Load.BT_325399512_325744229_2 Bus1=node_408203154.2.4 Phases=1 Model=8 zipv=(0.5,0,0.5,1,0,0,0) kv=0.1200 pf=0.92 kW=4.504110 Daily=RES1_25
New Load.BT_325050066_325774823_1 Bus1=node_407562157.1.4 Phases=1 Model=8 zipv=(0.5,0,0.5,1,0,0,0) kv=0.1270 pf=0.92 kW=2.754795 Daily=RES1_25
New Load.BT_325050066_325774823_2 Bus1=node_407562157.2.4 Phases=1 Model=8 zipv=(0.5,0,0.5,1,0,0,0) kv=0.1270 pf=0.92 kW=2.754795 Daily=RES1_25
New Load.BT_325050066_325774823_3 Bus1=node_407562157.3.4 Phases=1 Model=8 zipv=(0.5,0,0.5,1,0,0,0) kv=0.1270 pf=0.92 kW=2.754795 Daily=RES1_25
New Load.BT_325047976_325774806_1 Bus1=node_407562400.1.4 Phases=1 Model=8 zipv=(0.5,0,0.5,1,0,0,0) kv=0.1270 pf=0.92 kW=5.089498 Daily=RES1_25
New Load.BT_325047976_325774806_2 Bus1=node_407562400.2.4 Phases=1 Model=8 zipv=(0.5,0,0.5,1,0,0,0) kv=0.1270 pf=0.92 kW=5.089498 Daily=RES1_25
New Load.BT_325047976_325774806_3 Bus1=node_407562400.3.4 Phases=1 Model=8 zipv=(0.5,0,0.5,1,0,0,0) kv=0.1270 pf=0.92 kW=5.089498 Daily=RES1_25
New Load.BT_325048054_325859390_1 Bus1=node_407562016.1.4 Phases=1 Model=8 zipv=(0.5,0,0.5,1,0,0,0) kv=0.1270 pf=0.92 kW=4.794064 Daily=RES1_25
New Load.BT_325048054_325859390_2 Bus1=node_407562016.2.4 Phases=1 Model=8 zipv=(0.5,0,0.5,1,0,0,0) kv=0.1270 pf=0.92 kW=4.794064 Daily=RES1_25
New Load.BT_325048054_325859390_3 Bus1=node_407562016.3.4 Phases=1 Model=8 zipv=(0.5,0,0.5,1,0,0,0) kv=0.1270 pf=0.92 kW=4.794064 Daily=RES1_25
New Load.BT_324926773_1200336172_1 Bus1=node_766556431.1.4 Phases=1 Model=8 zipv=(0.5,0,0.5,1,0,0,0) kv=0.1270 pf=0.92 kW=6.095890 Daily=RES1_25
New Load.BT_324926773_1200336172_2 Bus1=node_766556431.2.4 Phases=1 Model=8 zipv=(0.5,0,0.5,1,0,0,0) kv=0.1270 pf=0.92 kW=6.095890 Daily=RES1_25
New Load.BT_324926773_1200336172_3 Bus1=node_766556431.3.4 Phases=1 Model=8 zipv=(0.5,0,0.5,1,0,0,0) kv=0.1270 pf=0.92 kW=6.095890 Daily=RES1_25
New Load.BT_325401179_325838598_1 Bus1=node_412427687.1.4 Phases=1 Model=8 zipv=(0.5,0,0.5,1,0,0,0) kv=0.1270 pf=0.92 kW=0.940639 Daily=RES1_25
New Load.BT_325401179_325838598_2 Bus1=node_412427687.2.4 Phases=1 Model=8 zipv=(0.5,0,0.5,1,0,0,0) kv=0.1270 pf=0.92 kW=0.940639 Daily=RES1_25
New Load.BT_325401179_325838598_3 Bus1=node_412427687.3.4 Phases=1 Model=8 zipv=(0.5,0,0.5,1,0,0,0) kv=0.1270 pf=0.92 kW=0.940639 Daily=RES1_25
New Load.BT_324924932_945087936_1 Bus1=node_407612724.1.4 Phases=1 Model=8 zipv=(0.5,0,0.5,1,0,0,0) kv=0.1270 pf=0.92 kW=4.187671 Daily=RES1_25
New Load.BT_324924932_945087936_2 Bus1=node_407612724.2.4 Phases=1 Model=8 zipv=(0.5,0,0.5,1,0,0,0) kv=0.1270 pf=0.92 kW=4.187671 Daily=RES1_25
New Load.BT_324924932_945087936_3 Bus1=node_407612724.3.4 Phases=1 Model=8 zipv=(0.5,0,0.5,1,0,0,0) kv=0.1270 pf=0.92 kW=4.187671 Daily=RES1_25
New Load.BT_325399650_325746412_1 Bus1=node_414198594.1.4 Phases=1 Model=8 zipv=(0.5,0,0.5,1,0,0,0) kv=0.1200 pf=0.92 kW=0.656849 Daily=RES1_25
New Load.BT_325399650_325746412_2 Bus1=node_414198594.2.4 Phases=1 Model=8 zipv=(0.5,0,0.5,1,0,0,0) kv=0.1200 pf=0.92 kW=0.656849 Daily=RES1_25
New Load.BT_324926318_325746393_1 Bus1=node_407562643.1.4 Phases=1 Model=8 zipv=(0.5,0,0.5,1,0,0,0) kv=0.1270 pf=0.92 kW=6.338356 Daily=RES1_25
New Load.BT_324926318_325746393_2 Bus1=node_407562643.2.4 Phases=1 Model=8 zipv=(0.5,0,0.5,1,0,0,0) kv=0.1270 pf=0.92 kW=6.338356 Daily=RES1_25
New Load.BT_324926318_325746393_3 Bus1=node_407562643.3.4 Phases=1 Model=8 zipv=(0.5,0,0.5,1,0,0,0) kv=0.1270 pf=0.92 kW=6.338356 Daily=RES1_25
New Load.BT_325175386_325775693_1 Bus1=node_407564836.1.4 Phases=1 Model=8 zipv=(0.5,0,0.5,1,0,0,0) kv=0.1270 pf=0.92 kW=4.143379 Daily=RES1_25
New Load.BT_325175386_325775693_2 Bus1=node_407564836.2.4 Phases=1 Model=8 zipv=(0.5,0,0.5,1,0,0,0) kv=0.1270 pf=0.92 kW=4.143379 Daily=RES1_25
New Load.BT_325175386_325775693_3 Bus1=node_407564836.3.4 Phases=1 Model=8 zipv=(0.5,0,0.5,1,0,0,0) kv=0.1270 pf=0.92 kW=4.143379 Daily=RES1_25
New Load.BT_325175922_325841096_1 Bus1=node_407562610.1.4 Phases=1 Model=8 zipv=(0.5,0,0.5,1,0,0,0) kv=0.1270 pf=0.92 kW=8.906849 Daily=RES1_25
New Load.BT_325175922_325841096_2 Bus1=node_407562610.2.4 Phases=1 Model=8 zipv=(0.5,0,0.5,1,0,0,0) kv=0.1270 pf=0.92 kW=8.906849 Daily=RES1_25
New Load.BT_325175922_325841096_3 Bus1=node_407562610.3.4 Phases=1 Model=8 zipv=(0.5,0,0.5,1,0,0,0) kv=0.1270 pf=0.92 kW=8.906849 Daily=RES1_25
New Load.BT_324923826_325814605_1 Bus1=node_407562595.1.4 Phases=1 Model=8 zipv=(0.5,0,0.5,1,0,0,0) kv=0.1270 pf=0.92 kW=3.363927 Daily=RES1_25
New Load.BT_324923826_325814605_2 Bus1=node_407562595.2.4 Phases=1 Model=8 zipv=(0.5,0,0.5,1,0,0,0) kv=0.1270 pf=0.92 kW=3.363927 Daily=RES1_25
New Load.BT_324923826_325814605_3 Bus1=node_407562595.3.4 Phases=1 Model=8 zipv=(0.5,0,0.5,1,0,0,0) kv=0.1270 pf=0.92 kW=3.363927 Daily=RES1_25
New Load.BT_324381423_325860873_1 Bus1=node_412427732.1.4 Phases=1 Model=8 zipv=(0.5,0,0.5,1,0,0,0) kv=0.1270 pf=0.92 kW=0.386301 Daily=RES1_25
New Load.BT_324381423_325860873_2 Bus1=node_412427732.2.4 Phases=1 Model=8 zipv=(0.5,0,0.5,1,0,0,0) kv=0.1270 pf=0.92 kW=0.386301 Daily=RES1_25
New Load.BT_324381423_325860873_3 Bus1=node_412427732.3.4 Phases=1 Model=8 zipv=(0.5,0,0.5,1,0,0,0) kv=0.1270 pf=0.92 kW=0.386301 Daily=RES1_25
New Load.BT_325173650_1027021744_1 Bus1=node_412470640.1.4 Phases=1 Model=8 zipv=(0.5,0,0.5,1,0,0,0) kv=0.1200 pf=0.92 kW=3.941096 Daily=RES1_25
New Load.BT_325173650_1027021744_2 Bus1=node_412470640.2.4 Phases=1 Model=8 zipv=(0.5,0,0.5,1,0,0,0) kv=0.1200 pf=0.92 kW=3.941096 Daily=RES1_25
New Load.BT_325174600_325774819_1 Bus1=node_407561923.1.4 Phases=1 Model=8 zipv=(0.5,0,0.5,1,0,0,0) kv=0.1270 pf=0.92 kW=4.968037 Daily=RES1_25
New Load.BT_325174600_325774819_2 Bus1=node_407561923.2.4 Phases=1 Model=8 zipv=(0.5,0,0.5,1,0,0,0) kv=0.1270 pf=0.92 kW=4.968037 Daily=RES1_25
New Load.BT_325174600_325774819_3 Bus1=node_407561923.3.4 Phases=1 Model=8 zipv=(0.5,0,0.5,1,0,0,0) kv=0.1270 pf=0.92 kW=4.968037 Daily=RES1_25
New Load.BT_325174159_325743744_1 Bus1=node_407562193.1.4 Phases=1 Model=8 zipv=(0.5,0,0.5,1,0,0,0) kv=0.1270 pf=0.92 kW=4.157534 Daily=RES1_25
New Load.BT_325174159_325743744_2 Bus1=node_407562193.2.4 Phases=1 Model=8 zipv=(0.5,0,0.5,1,0,0,0) kv=0.1270 pf=0.92 kW=4.157534 Daily=RES1_25
New Load.BT_325174159_325743744_3 Bus1=node_407562193.3.4 Phases=1 Model=8 zipv=(0.5,0,0.5,1,0,0,0) kv=0.1270 pf=0.92 kW=4.157534 Daily=RES1_25
New Load.BT_324924713_325841010_1 Bus1=node_407563924.1.4 Phases=1 Model=8 zipv=(0.5,0,0.5,1,0,0,0) kv=0.1270 pf=0.92 kW=1.911416 Daily=RES1_25
New Load.BT_324924713_325841010_2 Bus1=node_407563924.2.4 Phases=1 Model=8 zipv=(0.5,0,0.5,1,0,0,0) kv=0.1270 pf=0.92 kW=1.911416 Daily=RES1_25
New Load.BT_324924713_325841010_3 Bus1=node_407563924.3.4 Phases=1 Model=8 zipv=(0.5,0,0.5,1,0,0,0) kv=0.1270 pf=0.92 kW=1.911416 Daily=RES1_25
New Load.BT_325175611_325841025_1 Bus1=node_407562094.1.4 Phases=1 Model=8 zipv=(0.5,0,0.5,1,0,0,0) kv=0.1270 pf=0.92 kW=6.553425 Daily=RES1_25
New Load.BT_325175611_325841025_2 Bus1=node_407562094.2.4 Phases=1 Model=8 zipv=(0.5,0,0.5,1,0,0,0) kv=0.1270 pf=0.92 kW=6.553425 Daily=RES1_25
New Load.BT_325175611_325841025_3 Bus1=node_407562094.3.4 Phases=1 Model=8 zipv=(0.5,0,0.5,1,0,0,0) kv=0.1270 pf=0.92 kW=6.553425 Daily=RES1_25
New Load.BT_324762188_1390109564_1 Bus1=node_407563609.1.4 Phases=1 Model=8 zipv=(0.5,0,0.5,1,0,0,0) kv=0.1270 pf=0.92 kW=5.318265 Daily=RES1_25
New Load.BT_324762188_1390109564_2 Bus1=node_407563609.2.4 Phases=1 Model=8 zipv=(0.5,0,0.5,1,0,0,0) kv=0.1270 pf=0.92 kW=5.318265 Daily=RES1_25
New Load.BT_324762188_1390109564_3 Bus1=node_407563609.3.4 Phases=1 Model=8 zipv=(0.5,0,0.5,1,0,0,0) kv=0.1270 pf=0.92 kW=5.318265 Daily=RES1_25
New Load.BT_324924283_325859446_1 Bus1=node_412469920.1.4 Phases=1 Model=8 zipv=(0.5,0,0.5,1,0,0,0) kv=0.1270 pf=0.92 kW=2.806849 Daily=RES1_25
New Load.BT_324924283_325859446_2 Bus1=node_412469920.2.4 Phases=1 Model=8 zipv=(0.5,0,0.5,1,0,0,0) kv=0.1270 pf=0.92 kW=2.806849 Daily=RES1_25
New Load.BT_324924283_325859446_3 Bus1=node_412469920.3.4 Phases=1 Model=8 zipv=(0.5,0,0.5,1,0,0,0) kv=0.1270 pf=0.92 kW=2.806849 Daily=RES1_25
New Load.BT_325175999_325743719_1 Bus1=node_407563834.1.4 Phases=1 Model=8 zipv=(0.5,0,0.5,1,0,0,0) kv=0.1270 pf=0.92 kW=4.194977 Daily=RES1_25
New Load.BT_325175999_325743719_2 Bus1=node_407563834.2.4 Phases=1 Model=8 zipv=(0.5,0,0.5,1,0,0,0) kv=0.1270 pf=0.92 kW=4.194977 Daily=RES1_25
New Load.BT_325175999_325743719_3 Bus1=node_407563834.3.4 Phases=1 Model=8 zipv=(0.5,0,0.5,1,0,0,0) kv=0.1270 pf=0.92 kW=4.194977 Daily=RES1_25
New Load.BT_324762561_325841110_1 Bus1=node_412469698.1.4 Phases=1 Model=8 zipv=(0.5,0,0.5,1,0,0,0) kv=0.1270 pf=0.92 kW=4.201370 Daily=RES1_25
New Load.BT_324762561_325841110_2 Bus1=node_412469698.2.4 Phases=1 Model=8 zipv=(0.5,0,0.5,1,0,0,0) kv=0.1270 pf=0.92 kW=4.201370 Daily=RES1_25
New Load.BT_324762561_325841110_3 Bus1=node_412469698.3.4 Phases=1 Model=8 zipv=(0.5,0,0.5,1,0,0,0) kv=0.1270 pf=0.92 kW=4.201370 Daily=RES1_25
New Load.BT_324761680_325815488_1 Bus1=node_407562337.1.4 Phases=1 Model=8 zipv=(0.5,0,0.5,1,0,0,0) kv=0.1270 pf=0.92 kW=3.595434 Daily=RES1_25
New Load.BT_324761680_325815488_2 Bus1=node_407562337.2.4 Phases=1 Model=8 zipv=(0.5,0,0.5,1,0,0,0) kv=0.1270 pf=0.92 kW=3.595434 Daily=RES1_25
New Load.BT_324761680_325815488_3 Bus1=node_407562337.3.4 Phases=1 Model=8 zipv=(0.5,0,0.5,1,0,0,0) kv=0.1270 pf=0.92 kW=3.595434 Daily=RES1_25
New Load.BT_324925446_325838560_1 Bus1=node_412428203.1.4 Phases=1 Model=8 zipv=(0.5,0,0.5,1,0,0,0) kv=0.1270 pf=0.92 kW=3.901826 Daily=RES1_25
New Load.BT_324925446_325838560_2 Bus1=node_412428203.2.4 Phases=1 Model=8 zipv=(0.5,0,0.5,1,0,0,0) kv=0.1270 pf=0.92 kW=3.901826 Daily=RES1_25
New Load.BT_324925446_325838560_3 Bus1=node_412428203.3.4 Phases=1 Model=8 zipv=(0.5,0,0.5,1,0,0,0) kv=0.1270 pf=0.92 kW=3.901826 Daily=RES1_25
New Load.BT_324760230_875284666_1 Bus1=node_407562088.1.4 Phases=1 Model=8 zipv=(0.5,0,0.5,1,0,0,0) kv=0.1270 pf=0.92 kW=4.657991 Daily=RES1_25
New Load.BT_324760230_875284666_2 Bus1=node_407562088.2.4 Phases=1 Model=8 zipv=(0.5,0,0.5,1,0,0,0) kv=0.1270 pf=0.92 kW=4.657991 Daily=RES1_25
New Load.BT_324760230_875284666_3 Bus1=node_407562088.3.4 Phases=1 Model=8 zipv=(0.5,0,0.5,1,0,0,0) kv=0.1270 pf=0.92 kW=4.657991 Daily=RES1_25
New Load.BT_325048498_325841062_1 Bus1=node_407563642.1.4 Phases=1 Model=8 zipv=(0.5,0,0.5,1,0,0,0) kv=0.1270 pf=0.92 kW=10.237900 Daily=RES1_25
New Load.BT_325048498_325841062_2 Bus1=node_407563642.2.4 Phases=1 Model=8 zipv=(0.5,0,0.5,1,0,0,0) kv=0.1270 pf=0.92 kW=10.237900 Daily=RES1_25
New Load.BT_325048498_325841062_3 Bus1=node_407563642.3.4 Phases=1 Model=8 zipv=(0.5,0,0.5,1,0,0,0) kv=0.1270 pf=0.92 kW=10.237900 Daily=RES1_25
New Load.BT_325399874_325813917_1 Bus1=node_407563399.1.4 Phases=1 Model=8 zipv=(0.5,0,0.5,1,0,0,0) kv=0.1270 pf=0.92 kW=0.744749 Daily=RES1_25
New Load.BT_325399874_325813917_2 Bus1=node_407563399.2.4 Phases=1 Model=8 zipv=(0.5,0,0.5,1,0,0,0) kv=0.1270 pf=0.92 kW=0.744749 Daily=RES1_25
New Load.BT_325399874_325813917_3 Bus1=node_407563399.3.4 Phases=1 Model=8 zipv=(0.5,0,0.5,1,0,0,0) kv=0.1270 pf=0.92 kW=0.744749 Daily=RES1_25
New Load.BT_325174238_325776046_1 Bus1=node_407562691.1.4 Phases=1 Model=8 zipv=(0.5,0,0.5,1,0,0,0) kv=0.1270 pf=0.92 kW=3.839269 Daily=RES1_25
New Load.BT_325174238_325776046_2 Bus1=node_407562691.2.4 Phases=1 Model=8 zipv=(0.5,0,0.5,1,0,0,0) kv=0.1270 pf=0.92 kW=3.839269 Daily=RES1_25
New Load.BT_325174238_325776046_3 Bus1=node_407562691.3.4 Phases=1 Model=8 zipv=(0.5,0,0.5,1,0,0,0) kv=0.1270 pf=0.92 kW=3.839269 Daily=RES1_25
New Load.BT_325048899_325813999_1 Bus1=node_412469653.1.4 Phases=1 Model=8 zipv=(0.5,0,0.5,1,0,0,0) kv=0.1270 pf=0.92 kW=3.763927 Daily=RES1_25
New Load.BT_325048899_325813999_2 Bus1=node_412469653.2.4 Phases=1 Model=8 zipv=(0.5,0,0.5,1,0,0,0) kv=0.1270 pf=0.92 kW=3.763927 Daily=RES1_25
New Load.BT_325048899_325813999_3 Bus1=node_412469653.3.4 Phases=1 Model=8 zipv=(0.5,0,0.5,1,0,0,0) kv=0.1270 pf=0.92 kW=3.763927 Daily=RES1_25
New Load.BT_325173325_325813954_1 Bus1=node_407562484.1.4 Phases=1 Model=8 zipv=(0.5,0,0.5,1,0,0,0) kv=0.1200 pf=0.92 kW=4.742466 Daily=RES1_25
New Load.BT_325173325_325813954_2 Bus1=node_407562484.2.4 Phases=1 Model=8 zipv=(0.5,0,0.5,1,0,0,0) kv=0.1200 pf=0.92 kW=4.742466 Daily=RES1_25
New Load.BT_325175763_890747360_1 Bus1=node_407563546.1.4 Phases=1 Model=8 zipv=(0.5,0,0.5,1,0,0,0) kv=0.1270 pf=0.92 kW=3.552511 Daily=RES1_25
New Load.BT_325175763_890747360_2 Bus1=node_407563546.2.4 Phases=1 Model=8 zipv=(0.5,0,0.5,1,0,0,0) kv=0.1270 pf=0.92 kW=3.552511 Daily=RES1_25
New Load.BT_325175763_890747360_3 Bus1=node_407563546.3.4 Phases=1 Model=8 zipv=(0.5,0,0.5,1,0,0,0) kv=0.1270 pf=0.92 kW=3.552511 Daily=RES1_25
New Load.BT_324924693_325841024_1 Bus1=node_407562271.1.4 Phases=1 Model=8 zipv=(0.5,0,0.5,1,0,0,0) kv=0.1270 pf=0.92 kW=3.834247 Daily=RES1_25
New Load.BT_324924693_325841024_2 Bus1=node_407562271.2.4 Phases=1 Model=8 zipv=(0.5,0,0.5,1,0,0,0) kv=0.1270 pf=0.92 kW=3.834247 Daily=RES1_25
New Load.BT_324924693_325841024_3 Bus1=node_407562271.3.4 Phases=1 Model=8 zipv=(0.5,0,0.5,1,0,0,0) kv=0.1270 pf=0.92 kW=3.834247 Daily=RES1_25
New Load.BT_325047552_325775831_1 Bus1=node_407564914.1.4 Phases=1 Model=8 zipv=(0.5,0,0.5,1,0,0,0) kv=0.1270 pf=0.92 kW=6.105023 Daily=RES1_25
New Load.BT_325047552_325775831_2 Bus1=node_407564914.2.4 Phases=1 Model=8 zipv=(0.5,0,0.5,1,0,0,0) kv=0.1270 pf=0.92 kW=6.105023 Daily=RES1_25
New Load.BT_325047552_325775831_3 Bus1=node_407564914.3.4 Phases=1 Model=8 zipv=(0.5,0,0.5,1,0,0,0) kv=0.1270 pf=0.92 kW=6.105023 Daily=RES1_25
New Load.BT_325048156_325776342_1 Bus1=node_407851268.1.4 Phases=1 Model=8 zipv=(0.5,0,0.5,1,0,0,0) kv=0.1200 pf=0.92 kW=7.941781 Daily=RES1_25
New Load.BT_325048156_325776342_2 Bus1=node_407851268.2.4 Phases=1 Model=8 zipv=(0.5,0,0.5,1,0,0,0) kv=0.1200 pf=0.92 kW=7.941781 Daily=RES1_25
New Load.BT_325401596_325837510_1 Bus1=node_411873413.1.4 Phases=1 Model=8 zipv=(0.5,0,0.5,1,0,0,0) kv=0.1200 pf=0.92 kW=0.764384 Daily=RES1_25
New Load.BT_325401596_325837510_2 Bus1=node_411873413.2.4 Phases=1 Model=8 zipv=(0.5,0,0.5,1,0,0,0) kv=0.1200 pf=0.92 kW=0.764384 Daily=RES1_25
New Load.BT_325048748_325811816_1 Bus1=node_407563264.1.4 Phases=1 Model=8 zipv=(0.5,0,0.5,1,0,0,0) kv=0.1270 pf=0.92 kW=5.370776 Daily=RES1_25
New Load.BT_325048748_325811816_2 Bus1=node_407563264.2.4 Phases=1 Model=8 zipv=(0.5,0,0.5,1,0,0,0) kv=0.1270 pf=0.92 kW=5.370776 Daily=RES1_25
New Load.BT_325048748_325811816_3 Bus1=node_407563264.3.4 Phases=1 Model=8 zipv=(0.5,0,0.5,1,0,0,0) kv=0.1270 pf=0.92 kW=5.370776 Daily=RES1_25
New Load.BT_324760877_325859428_1 Bus1=node_407563159.1.4 Phases=1 Model=8 zipv=(0.5,0,0.5,1,0,0,0) kv=0.1270 pf=0.92 kW=3.667123 Daily=RES1_25
New Load.BT_324760877_325859428_2 Bus1=node_407563159.2.4 Phases=1 Model=8 zipv=(0.5,0,0.5,1,0,0,0) kv=0.1270 pf=0.92 kW=3.667123 Daily=RES1_25
New Load.BT_324760877_325859428_3 Bus1=node_407563159.3.4 Phases=1 Model=8 zipv=(0.5,0,0.5,1,0,0,0) kv=0.1270 pf=0.92 kW=3.667123 Daily=RES1_25
New Load.BT_324763096_325841113_1 Bus1=node_412469962.1.4 Phases=1 Model=8 zipv=(0.5,0,0.5,1,0,0,0) kv=0.1270 pf=0.92 kW=1.435160 Daily=RES1_25
New Load.BT_324763096_325841113_2 Bus1=node_412469962.2.4 Phases=1 Model=8 zipv=(0.5,0,0.5,1,0,0,0) kv=0.1270 pf=0.92 kW=1.435160 Daily=RES1_25
New Load.BT_324763096_325841113_3 Bus1=node_412469962.3.4 Phases=1 Model=8 zipv=(0.5,0,0.5,1,0,0,0) kv=0.1270 pf=0.92 kW=1.435160 Daily=RES1_25
New Load.BT_325050235_325776056_1 Bus1=node_412469941.1.4 Phases=1 Model=8 zipv=(0.5,0,0.5,1,0,0,0) kv=0.1200 pf=0.92 kW=1.232192 Daily=RES1_25
New Load.BT_325050235_325776056_2 Bus1=node_412469941.2.4 Phases=1 Model=8 zipv=(0.5,0,0.5,1,0,0,0) kv=0.1200 pf=0.92 kW=1.232192 Daily=RES1_25
New Load.BT_325171958_325746177_1 Bus1=node_407612502.1.4 Phases=1 Model=8 zipv=(0.5,0,0.5,1,0,0,0) kv=0.1270 pf=0.92 kW=3.164840 Daily=RES1_25
New Load.BT_325171958_325746177_2 Bus1=node_407612502.2.4 Phases=1 Model=8 zipv=(0.5,0,0.5,1,0,0,0) kv=0.1270 pf=0.92 kW=3.164840 Daily=RES1_25
New Load.BT_325171958_325746177_3 Bus1=node_407612502.3.4 Phases=1 Model=8 zipv=(0.5,0,0.5,1,0,0,0) kv=0.1270 pf=0.92 kW=3.164840 Daily=RES1_25
New Load.BT_324761577_2296667426_1 Bus1=node_407563081.1.4 Phases=1 Model=8 zipv=(0.5,0,0.5,1,0,0,0) kv=0.1270 pf=0.92 kW=3.559817 Daily=RES1_25
New Load.BT_324761577_2296667426_2 Bus1=node_407563081.2.4 Phases=1 Model=8 zipv=(0.5,0,0.5,1,0,0,0) kv=0.1270 pf=0.92 kW=3.559817 Daily=RES1_25
New Load.BT_324761577_2296667426_3 Bus1=node_407563081.3.4 Phases=1 Model=8 zipv=(0.5,0,0.5,1,0,0,0) kv=0.1270 pf=0.92 kW=3.559817 Daily=RES1_25
New Load.BT_1021607044_1021607045_1 Bus1=node_1286147511.1.4 Phases=1 Model=8 zipv=(0.5,0,0.5,1,0,0,0) kv=0.1200 pf=0.92 kW=0.060274 Daily=RES1_25
New Load.BT_1021607044_1021607045_2 Bus1=node_1286147511.2.4 Phases=1 Model=8 zipv=(0.5,0,0.5,1,0,0,0) kv=0.1200 pf=0.92 kW=0.060274 Daily=RES1_25
New Load.BT_324925241_325859401_1 Bus1=node_407562505.1.4 Phases=1 Model=8 zipv=(0.5,0,0.5,1,0,0,0) kv=0.1270 pf=0.92 kW=4.900457 Daily=RES1_25
New Load.BT_324925241_325859401_2 Bus1=node_407562505.2.4 Phases=1 Model=8 zipv=(0.5,0,0.5,1,0,0,0) kv=0.1270 pf=0.92 kW=4.900457 Daily=RES1_25
New Load.BT_324925241_325859401_3 Bus1=node_407562505.3.4 Phases=1 Model=8 zipv=(0.5,0,0.5,1,0,0,0) kv=0.1270 pf=0.92 kW=4.900457 Daily=RES1_25
New Load.BT_325172974_325776023_1 Bus1=node_407563336.1.4 Phases=1 Model=8 zipv=(0.5,0,0.5,1,0,0,0) kv=0.1270 pf=0.92 kW=2.551598 Daily=COM1_26
New Load.BT_325172974_325776023_2 Bus1=node_407563336.2.4 Phases=1 Model=8 zipv=(0.5,0,0.5,1,0,0,0) kv=0.1270 pf=0.92 kW=2.551598 Daily=COM1_26
New Load.BT_325172974_325776023_3 Bus1=node_407563336.3.4 Phases=1 Model=8 zipv=(0.5,0,0.5,1,0,0,0) kv=0.1270 pf=0.92 kW=2.551598 Daily=COM1_26
New Load.BT_325400395_325815489_1 Bus1=node_407562187.1.4 Phases=1 Model=8 zipv=(0.5,0,0.5,1,0,0,0) kv=0.1270 pf=0.92 kW=5.009132 Daily=RES1_25
New Load.BT_325400395_325815489_2 Bus1=node_407562187.2.4 Phases=1 Model=8 zipv=(0.5,0,0.5,1,0,0,0) kv=0.1270 pf=0.92 kW=5.009132 Daily=RES1_25
New Load.BT_325400395_325815489_3 Bus1=node_407562187.3.4 Phases=1 Model=8 zipv=(0.5,0,0.5,1,0,0,0) kv=0.1270 pf=0.92 kW=5.009132 Daily=RES1_25
New Load.BT_325399894_325815528_1 Bus1=node_407562553.1.4 Phases=1 Model=8 zipv=(0.5,0,0.5,1,0,0,0) kv=0.1270 pf=0.92 kW=5.534247 Daily=RES1_25
New Load.BT_325399894_325815528_2 Bus1=node_407562553.2.4 Phases=1 Model=8 zipv=(0.5,0,0.5,1,0,0,0) kv=0.1270 pf=0.92 kW=5.534247 Daily=RES1_25
New Load.BT_325399894_325815528_3 Bus1=node_407562553.3.4 Phases=1 Model=8 zipv=(0.5,0,0.5,1,0,0,0) kv=0.1270 pf=0.92 kW=5.534247 Daily=RES1_25
...

! --- cargas de media tensao (UCMT_tab) ---
New Load.MT_node_442206457_13 Bus1=node_442206457.1.2.3 Phases=3 Conn=wye Model=8 zipv=(0.5,0,0.5,1,0,0,0) kv=13.8000 pf=0.92 kW=760.3027 Daily=MT1_1
New Load.MT_node_123522539_14 Bus1=node_123522539.1.2.3 Phases=3 Conn=wye Model=8 zipv=(0.5,0,0.5,1,0,0,0) kv=13.8000 pf=0.92 kW=449.5438 Daily=MT1_1
New Load.MT_node_427638999_15 Bus1=node_427638999.1.2.3 Phases=3 Conn=wye Model=8 zipv=(0.5,0,0.5,1,0,0,0) kv=13.8000 pf=0.92 kW=369.9890 Daily=MT1_1
New Load.MT_node_2756838343_16 Bus1=node_2756838343.1.2.3 Phases=3 Conn=wye Model=8 zipv=(0.5,0,0.5,1,0,0,0) kv=13.8000 pf=0.92 kW=288.0260 Daily=MT1_1
New Load.MT_node_427428148_17 Bus1=node_427428148.1.2.3 Phases=3 Conn=wye Model=8 zipv=(0.5,0,0.5,1,0,0,0) kv=13.8000 pf=0.92 kW=61.8932 Daily=MT1_1
New Load.MT_node_170693518_20 Bus1=node_170693518.1.2.3 Phases=3 Conn=wye Model=8 zipv=(0.5,0,0.5,1,0,0,0) kv=13.8000 pf=0.92 kW=42.5753 Daily=MT1_1
New Load.MT_node_1389667951_22 Bus1=node_1389667951.1.2.3 Phases=3 Conn=wye Model=8 zipv=(0.5,0,0.5,1,0,0,0) kv=13.8000 pf=0.92 kW=1.7260 Daily=MT1_1
New Load.MT_node_431691046_23 Bus1=node_431691046.1.2.3 Phases=3 Conn=wye Model=8 zipv=(0.5,0,0.5,1,0,0,0) kv=13.8000 pf=0.92 kW=23.8699 Daily=MT1_1
New Load.MT_node_442204882_24 Bus1=node_442204882.1.2.3 Phases=3 Conn=wye Model=8 zipv=(0.5,0,0.5,1,0,0,0) kv=13.8000 pf=0.92 kW=26.6781 Daily=MT1_1
New Load.MT_node_442006679_26 Bus1=node_442006679.1.2.3 Phases=3 Conn=wye Model=8 zipv=(0.5,0,0.5,1,0,0,0) kv=13.8000 pf=0.92 kW=23.2890 Daily=MT1_1
New Load.MT_node_431692690_28 Bus1=node_431692690.1.2.3 Phases=3 Conn=wye Model=8 zipv=(0.5,0,0.5,1,0,0,0) kv=13.8000 pf=0.92 kW=22.0164 Daily=MT1_1
New Load.MT_node_445409065_30 Bus1=node_445409065.1.2.3 Phases=3 Conn=wye Model=8 zipv=(0.5,0,0.5,1,0,0,0) kv=13.8000 pf=0.92 kW=7.7671 Daily=MT1_1
New Load.MT_node_433651243_31 Bus1=node_433651243.1.2.3 Phases=3 Conn=wye Model=8 zipv=(0.5,0,0.5,1,0,0,0) kv=13.8000 pf=0.92 kW=7.3014 Daily=MT1_1
New Load.MT_node_444484990_32 Bus1=node_444484990.1.2.3 Phases=3 Conn=wye Model=8 zipv=(0.5,0,0.5,1,0,0,0) kv=13.8000 pf=0.92 kW=10.6712 Daily=MT1_1
New Load.MT_node_445409620_33 Bus1=node_445409620.1.2.3 Phases=3 Conn=wye Model=8 zipv=(0.5,0,0.5,1,0,0,0) kv=13.8000 pf=0.92 kW=9.3233 Daily=MT1_1
New Load.MT_node_444359509_35 Bus1=node_444359509.1.2.3 Phases=3 Conn=wye Model=8 zipv=(0.5,0,0.5,1,0,0,0) kv=13.8000 pf=0.92 kW=1.6849 Daily=MT1_1
New Load.MT_node_433653002_37 Bus1=node_433653002.1.2.3 Phases=3 Conn=wye Model=8 zipv=(0.5,0,0.5,1,0,0,0) kv=13.8000 pf=0.92 kW=20.4438 Daily=MT1_1
New Load.MT_node_445408546_38 Bus1=node_445408546.1.2.3 Phases=3 Conn=wye Model=8 zipv=(0.5,0,0.5,1,0,0,0) kv=13.8000 pf=0.92 kW=5.1110 Daily=MT5_1
New Load.MT_node_433653052_39 Bus1=node_433653052.1.2.3 Phases=3 Conn=wye Model=8 zipv=(0.5,0,0.5,1,0,0,0) kv=13.8000 pf=0.92 kW=22.4658 Daily=MT1_1
New Load.MT_node_908554658_40 Bus1=node_908554658.1.2.3 Phases=3 Conn=wye Model=8 zipv=(0.5,0,0.5,1,0,0,0) kv=13.8000 pf=0.92 kW=37.8548 Daily=MT1_1
New Load.MT_node_1033140751_41 Bus1=node_1033140751.1.2.3 Phases=3 Conn=wye Model=8 zipv=(0.5,0,0.5,1,0,0,0) kv=13.8000 pf=0.92 kW=493.8356 Daily=MT1_1
New Load.MT_node_445408651_42 Bus1=node_445408651.1.2.3 Phases=3 Conn=wye Model=8 zipv=(0.5,0,0.5,1,0,0,0) kv=13.8000 pf=0.92 kW=63.0959 Daily=MT2_1
